Version 4
SHEET 1 1912 680
WIRE -448 -96 -448 -112
WIRE 272 48 16 48
WIRE -448 64 -448 -16
WIRE 176 80 112 80
WIRE 112 112 112 80
WIRE 16 128 16 48
WIRE 80 128 16 128
WIRE 272 144 272 48
WIRE 272 144 144 144
WIRE -224 160 -464 160
WIRE 80 160 -144 160
WIRE 112 208 112 176
WIRE -464 272 -464 160
WIRE 272 368 272 144
WIRE 272 368 224 368
WIRE -464 432 -464 352
FLAG -464 432 0
FLAG 112 208 0
FLAG 176 80 3.3V
FLAG -448 -112 3.3V
FLAG -448 64 0
SYMBOL res -128 144 R90
WINDOW 0 0 56 VBottom 2
WINDOW 3 32 56 VTop 2
SYMATTR InstName R3
SYMATTR Value 10Meg
SYMBOL voltage -464 256 R0
WINDOW 123 0 0 Left 0
WINDOW 39 0 0 Left 0
SYMATTR InstName V1
SYMATTR Value PULSE(-1000 1000 0 100m 1n 1n 101m)
SYMBOL voltage -448 -112 R0
WINDOW 123 0 0 Left 0
WINDOW 39 0 0 Left 0
SYMATTR InstName V2
SYMATTR Value 5
SYMBOL OpAmps\\opamp2 112 80 R0
SYMATTR InstName U1
SYMATTR Value NCS21802
TEXT -498 504 Left 2 !.tran 100m
TEXT 792 176 Left 2 !.lib "Z:\\home\\ostoja\\Elektronika\\voltmeter_module\\simulacije\\NCS2180X SPICE MODEL.MOD"
