Version 4
SHEET 1 1396 680
WIRE -1376 -560 -1408 -560
WIRE -1344 -560 -1376 -560
WIRE -1168 -560 -1200 -560
WIRE -1136 -560 -1168 -560
WIRE -1008 -560 -1040 -560
WIRE -976 -560 -1008 -560
WIRE -1408 -512 -1408 -560
WIRE -1200 -512 -1200 -560
WIRE -1040 -512 -1040 -560
WIRE -1408 -384 -1408 -432
WIRE -1200 -384 -1200 -432
WIRE -1040 -384 -1040 -432
WIRE -1376 -336 -1408 -336
WIRE -1344 -336 -1376 -336
WIRE -1152 -336 -1184 -336
WIRE -1120 -336 -1152 -336
WIRE -1408 -288 -1408 -336
WIRE -1184 -288 -1184 -336
WIRE 848 -224 848 -240
WIRE 848 -224 720 -224
WIRE 864 -224 848 -224
WIRE 720 -176 720 -224
WIRE 848 -176 848 -224
WIRE -1408 -160 -1408 -208
WIRE -1184 -160 -1184 -208
WIRE -192 -96 -432 -96
WIRE 272 -32 -16 -32
WIRE 720 -32 720 -96
WIRE 848 -32 848 -96
WIRE 848 -32 720 -32
WIRE -192 -16 -192 -96
WIRE -16 112 -16 -32
WIRE 112 112 -16 112
WIRE -432 128 -432 -96
WIRE 272 128 272 -32
WIRE 272 128 176 128
WIRE 336 128 272 128
WIRE 480 128 416 128
WIRE 848 128 848 -32
WIRE 848 128 560 128
WIRE 992 128 848 128
WIRE 1008 128 992 128
WIRE -192 144 -192 64
WIRE 112 144 -192 144
WIRE 1168 144 1056 144
WIRE 992 160 928 160
WIRE 848 176 848 128
WIRE 848 176 720 176
WIRE 864 176 848 176
WIRE -192 192 -192 144
WIRE 720 192 720 176
WIRE 928 240 928 160
WIRE 1168 240 1168 144
WIRE 1168 240 928 240
WIRE 848 272 848 176
WIRE -432 320 -432 208
WIRE -192 320 -192 272
WIRE 720 320 720 272
WIRE 720 432 720 400
WIRE 848 432 848 352
WIRE 848 432 720 432
WIRE 848 448 848 432
FLAG 144 96 15V
FLAG 144 160 -15V
FLAG -1168 -560 15V
FLAG -1008 -560 -15V
FLAG -1040 -384 0
FLAG -1200 -384 0
FLAG -1376 -560 -5V
FLAG -1408 -384 0
FLAG -1376 -336 5V
FLAG -1408 -160 0
FLAG -192 320 0
FLAG -432 320 0
FLAG 1024 176 15V
FLAG 1024 112 -15V
FLAG 848 -240 3V
FLAG -1152 -336 3V
FLAG -1184 -160 0
FLAG 848 448 0
SYMBOL ZZZ\\OpAmp\\TL072 144 128 R0
SYMATTR InstName U1
SYMBOL voltage -1200 -528 R0
WINDOW 123 0 0 Left 0
WINDOW 39 0 0 Left 0
SYMATTR InstName V1
SYMATTR Value 15
SYMBOL voltage -1040 -528 R0
WINDOW 123 0 0 Left 0
WINDOW 39 0 0 Left 0
SYMATTR InstName V2
SYMATTR Value -15
SYMBOL voltage -1408 -528 R0
WINDOW 123 0 0 Left 0
WINDOW 39 0 0 Left 0
SYMATTR InstName V3
SYMATTR Value -5
SYMBOL voltage -1408 -304 R0
WINDOW 123 0 0 Left 0
WINDOW 39 0 0 Left 0
SYMATTR InstName V4
SYMATTR Value 5
SYMBOL res -208 -32 R0
SYMATTR InstName R1
SYMATTR Value 10Meg
SYMBOL res -208 176 R0
SYMATTR InstName R2
SYMATTR Value 101k
SYMBOL voltage -432 112 M0
WINDOW 123 0 0 Left 0
WINDOW 39 0 0 Left 0
SYMATTR InstName V5
SYMATTR Value PULSE(-1200 1200 0 10m 1u 1u 11m)
SYMBOL res 432 112 R90
WINDOW 0 0 56 VBottom 2
WINDOW 3 32 56 VTop 2
SYMATTR InstName R3
SYMATTR Value 2k
SYMBOL ZZZ\\OpAmp\\TL072 1024 144 M180
SYMATTR InstName U3
SYMBOL voltage -1184 -304 R0
WINDOW 123 0 0 Left 0
WINDOW 39 0 0 Left 0
SYMATTR InstName V6
SYMATTR Value 3
SYMBOL res 576 112 R90
WINDOW 0 0 56 VBottom 2
WINDOW 3 32 56 VTop 2
SYMATTR InstName R5
SYMATTR Value 2k
SYMBOL res 736 -80 R180
WINDOW 0 36 76 Left 2
WINDOW 3 36 40 Left 2
SYMATTR InstName R7
SYMATTR Value 2k
SYMBOL res 864 -80 R180
WINDOW 0 36 76 Left 2
WINDOW 3 36 40 Left 2
SYMATTR InstName R8
SYMATTR Value 2k
SYMBOL res 736 288 R180
WINDOW 0 36 76 Left 2
WINDOW 3 36 40 Left 2
SYMATTR InstName R6
SYMATTR Value 2k
SYMBOL res 864 368 R180
WINDOW 0 36 76 Left 2
WINDOW 3 36 40 Left 2
SYMATTR InstName R9
SYMATTR Value 2k
SYMBOL res 736 416 R180
WINDOW 0 36 76 Left 2
WINDOW 3 36 40 Left 2
SYMATTR InstName R4
SYMATTR Value 2k
TEXT -896 344 Left 2 !.tran 10m
